Test_Network/condensed/network_1/Feeder_1/LinesUnq_pruned.txt
New Line.LINE11_26 Bus1=11_25 Bus2=11_27 phases=3 Linecode=2c_16 Length=5.9049 Units=m
New Line.LINE11_35 Bus1=11_32 Bus2=11_36 phases=3 Linecode=2c_16 Length=5.7265 Units=m
New Line.LINE11_65 Bus1=11_59 Bus2=11_66 phases=3 Linecode=2c_16 Length=8.2583 Units=m
New Line.LINE11_72 Bus1=11_66 Bus2=11_73 phases=3 Linecode=2c_16 Length=4.0366 Units=m
New Line.LINE11_73 Bus1=11_66 Bus2=11_74 phases=3 Linecode=2c_16 Length=4.0366 Units=m
New Line.LINE11_150 Bus1=11_145 Bus2=11_151 phases=3 Linecode=4c_.35 Length=3.5713 Units=m
New Line.LINE11_157 Bus1=11_151 Bus2=11_158 phases=3 Linecode=4c_.35 Length=9.4713 Units=m
New Line.LINE11_165 Bus1=11_158 Bus2=11_166 phases=3 Linecode=4c_.35 Length=3.2899 Units=m
New Line.LINE11_174 Bus1=11_166 Bus2=11_175 phases=3 Linecode=2c_16 Length=4.2045 Units=m
New Line.LINE11_183 Bus1=11_175 Bus2=11_184 phases=3 Linecode=2c_16 Length=0.45409 Units=m
New Line.LINE11_192 Bus1=11_184 Bus2=11_193 phases=3 Linecode=2c_16 Length=0.43923 Units=m
New Line.LINE11_202 Bus1=11_193 Bus2=11_203 phases=3 Linecode=2c_16 Length=0.35134 Units=m
New Line.LINE11_206 Bus1=11_196 Bus2=11_207 phases=3 Linecode=4c_.35 Length=2.1371 Units=m
New Line.LINE11_212 Bus1=11_203 Bus2=11_213 phases=3 Linecode=2c_16 Length=0.27987 Units=m
New Line.LINE11_216 Bus1=11_207 Bus2=11_217 phases=3 Linecode=4c_.35 Length=3.8571 Units=m
New Line.LINE11_221 Bus1=11_213 Bus2=11_222 phases=3 Linecode=2c_16 Length=0.59169 Units=m
New Line.LINE11_225 Bus1=11_217 Bus2=11_226 phases=3 Linecode=4c_.35 Length=1.3772 Units=m
New Line.LINE11_229 Bus1=11_222 Bus2=11_230 phases=3 Linecode=2c_16 Length=0.46597 Units=m
New Line.LINE11_232 Bus1=11_226 Bus2=11_233 phases=3 Linecode=2c_16 Length=11.8949 Units=m
New Line.LINE11_237 Bus1=11_230 Bus2=11_238 phases=3 Linecode=2c_16 Length=0.32322 Units=m
New Line.LINE11_240 Bus1=11_233 Bus2=11_241 phases=3 Linecode=2c_16 Length=1.7274 Units=m
New Line.LINE11_244 Bus1=11_238 Bus2=11_245 phases=3 Linecode=2c_16 Length=0.32245 Units=m
New Line.LINE11_247 Bus1=11_241 Bus2=11_248 phases=3 Linecode=2c_16 Length=5.3022 Units=m
New Line.LINE11_248 Bus1=11_241 Bus2=11_249 phases=3 Linecode=2c_16 Length=5.3022 Units=m
New Line.LINE11_252 Bus1=11_245 Bus2=11_253 phases=3 Linecode=2c_16 Length=0.47173 Units=m
New Line.LINE11_259 Bus1=11_253 Bus2=11_260 phases=3 Linecode=2c_16 Length=1.7742 Units=m
New Line.LINE11_266 Bus1=11_260 Bus2=11_267 phases=3 Linecode=2c_16 Length=0.4141 Units=m
New Line.LINE11_274 Bus1=11_267 Bus2=11_275 phases=3 Linecode=2c_16 Length=0.18971 Units=m
New Line.LINE11_282 Bus1=11_275 Bus2=11_283 phases=3 Linecode=2c_16 Length=0.12472 Units=m
New Line.LINE11_331 Bus1=11_325 Bus2=11_332 phases=3 Linecode=4c_.06 Length=6.6729 Units=m
New Line.LINE11_483 Bus1=11_475 Bus2=11_484 phases=3 Linecode=2c_16 Length=10.2769 Units=m
New Line.LINE11_538 Bus1=11_530 Bus2=11_539 phases=3 Linecode=2c_16 Length=5.5837 Units=m
New Line.LINE11_594 Bus1=11_587 Bus2=11_595 phases=3 Linecode=4c_.06 Length=5.4142 Units=m
New Line.LINE11_595 Bus1=11_587 Bus2=11_596 phases=3 Linecode=4c_.06 Length=0.64238 Units=m
New Line.LINE11_603 Bus1=11_595 Bus2=11_604 phases=3 Linecode=4c_.06 Length=4.8283 Units=m
New Line.LINE11_606 Bus1=11_596 Bus2=11_607 phases=3 Linecode=2c_16 Length=11.6642 Units=m
New Line.LINE11_615 Bus1=11_604 Bus2=11_616 phases=3 Linecode=2c_.0225 Length=3.9301 Units=m
New Line.LINE11_618 Bus1=11_607 Bus2=11_619 phases=3 Linecode=2c_16 Length=2.7454 Units=m
New Line.LINE11_625 Bus1=11_616 Bus2=11_626 phases=3 Linecode=2c_.0225 Length=5.3537 Units=m
New Line.LINE11_632 Bus1=11_626 Bus2=11_633 phases=3 Linecode=2c_.0225 Length=1.5703 Units=m
New Line.LINE11_638 Bus1=11_633 Bus2=11_639 phases=3 Linecode=2c_.0225 Length=5.1974 Units=m
New Line.LINE11_689 Bus1=11_686 Bus2=11_690 phases=3 Linecode=2c_16 Length=8.1445 Units=m
New Line.LINE11_690 Bus1=11_686 Bus2=11_691 phases=3 Linecode=4c_.1 Length=10.5254 Units=m
New Line.LINE11_696 Bus1=11_691 Bus2=11_697 phases=3 Linecode=4c_.1 Length=2.1907 Units=m
New Line.LINE11_702 Bus1=11_697 Bus2=11_703 phases=3 Linecode=4c_.06 Length=2.4 Units=m
New Line.LINE11_706 Bus1=11_703 Bus2=11_707 phases=3 Linecode=4c_.06 Length=6.3308 Units=m
New Line.LINE11_801 Bus1=11_794 Bus2=11_802 phases=3 Linecode=4c_95_SAC_XC Length=2.8031 Units=m
New Line.LINE11_809 Bus1=11_802 Bus2=11_810 phases=3 Linecode=4c_.06 Length=3.0749 Units=m
New Line.LINE11_818 Bus1=11_810 Bus2=11_819 phases=3 Linecode=4c_.06 Length=2.5782 Units=m
New Line.LINE11_825 Bus1=11_819 Bus2=11_826 phases=3 Linecode=4c_.06 Length=2.7715 Units=m
New Line.LINE11_832 Bus1=11_826 Bus2=11_833 phases=3 Linecode=4c_.06 Length=2.2755 Units=m
New Line.LINE11_838 Bus1=11_833 Bus2=11_839 phases=3 Linecode=4c_.06 Length=2.443 Units=m
New Line.LINE11_843 Bus1=11_839 Bus2=11_844 phases=3 Linecode=2c_.0225 Length=4.8092 Units=m
New Line.LINE11_849 Bus1=11_844 Bus2=11_850 phases=3 Linecode=2c_.0225 Length=0.7036 Units=m
New Line.LINE11_855 Bus1=11_850 Bus2=11_856 phases=3 Linecode=2c_.0225 Length=1.9822 Units=m
New Line.LINE11_859 Bus1=11_854 Bus2=11_860 phases=3 Linecode=2c_16 Length=2.82 Units=m
New Line.LINE11_860 Bus1=11_854 Bus2=11_861 phases=3 Linecode=2c_16 Length=7.5091 Units=m
New Line.LINE11_862 Bus1=11_856 Bus2=11_863 phases=3 Linecode=2c_.0225 Length=2.3276 Units=m
New Line.LINE11_867 Bus1=11_863 Bus2=11_868 phases=3 Linecode=2c_.0225 Length=0.30194 Units=m
New Line.LINE11_895 Bus1=11_891 Bus2=11_896 phases=3 Linecode=2c_16 Length=3.2587 Units=m
New Line.LINE11_Cmpd_0 Bus1=11_247 Bus2=11_387 phases=3 Linecode=2c_16 Length=14.523658 Units=m
New Line.LINE11_Cmpd_1 Bus1=11_127 Bus2=11_289 phases=3 Linecode=2c_16 Length=14.34716 Units=m
New Line.LINE11_Cmpd_2 Bus1=11_332 Bus2=11_453 phases=3 Linecode=4c_.06 Length=37.66329 Units=m
New Line.LINE11_Cmpd_3 Bus1=11_559 Bus2=11_587 phases=3 Linecode=4c_.06 Length=7.30091 Units=m
New Line.LINE11_Cmpd_4 Bus1=11_32 Bus2=11_59 phases=3 Linecode=4c_70 Length=21.15538 Units=m
New Line.LINE11_Cmpd_5 Bus1=11_794 Bus2=11_884 phases=3 Linecode=2c_16 Length=10.77222 Units=m
New Line.LINE11_Cmpd_6 Bus1=11_36 Bus2=11_83 phases=3 Linecode=2c_16 Length=6.44409 Units=m
New Line.LINE11_Cmpd_7 Bus1=11_505 Bus2=11_578 phases=3 Linecode=4c_.1 Length=2.936771 Units=m
New Line.LINE11_Cmpd_8 Bus1=11_690 Bus2=11_778 phases=3 Linecode=2c_16 Length=7.35786 Units=m
New Line.LINE11_Cmpd_9 Bus1=11_114 Bus2=11_247 phases=3 Linecode=4c_.1 Length=28.18684 Units=m
New Line.LINE11_Cmpd_10 Bus1=11_145 Bus2=11_261 phases=3 Linecode=2c_16 Length=11.18521 Units=m
New Line.LINE11_Cmpd_11 Bus1=11_101 Bus2=11_155 phases=3 Linecode=4c_.35 Length=14.67517 Units=m
New Line.LINE11_Cmpd_12 Bus1=11_615 Bus2=11_688 phases=3 Linecode=2c_16 Length=13.76873 Units=m
New Line.LINE11_Cmpd_13 Bus1=11_391 Bus2=11_530 phases=3 Linecode=2c_16 Length=10.680624 Units=m
New Line.LINE11_Cmpd_14 Bus1=11_373 Bus2=11_458 phases=3 Linecode=2c_16 Length=21.23445 Units=m
New Line.LINE11_Cmpd_15 Bus1=11_707 Bus2=11_891 phases=3 Linecode=2c_16 Length=12.748019 Units=m
New Line.LINE11_Cmpd_16 Bus1=11_155 Bus2=11_178 phases=3 Linecode=2c_16 Length=18.5373 Units=m
New Line.LINE11_Cmpd_17 Bus1=11_59 Bus2=11_101 phases=3 Linecode=4c_70 Length=13.37622 Units=m
New Line.LINE11_Cmpd_18 Bus1=11_594 Bus2=11_614 phases=3 Linecode=2c_16 Length=14.0043 Units=m
New Line.LINE11_Cmpd_19 Bus1=11_666 Bus2=11_786 phases=3 Linecode=2c_16 Length=15.18983 Units=m
New Line.LINE11_Cmpd_20 Bus1=11_739 Bus2=11_813 phases=3 Linecode=2c_16 Length=5.756153 Units=m
New Line.LINE11_Cmpd_21 Bus1=11_544 Bus2=11_611 phases=3 Linecode=2c_16 Length=6.37701 Units=m
New Line.LINE11_Cmpd_22 Bus1=11_484 Bus2=11_563 phases=3 Linecode=2c_16 Length=5.54817 Units=m
New Line.LINE11_Cmpd_23 Bus1=11_578 Bus2=11_785 phases=3 Linecode=2c_16 Length=15.715408 Units=m
New Line.LINE11_Cmpd_24 Bus1=11_453 Bus2=11_629 phases=3 Linecode=2c_16 Length=16.52655 Units=m
New Line.LINE11_Cmpd_25 Bus1=11_691 Bus2=11_702 phases=3 Linecode=2c_16 Length=14.9747 Units=m
New Line.LINE11_Cmpd_26 Bus1=11_391 Bus2=11_505 phases=3 Linecode=4c_.1 Length=26.309 Units=m
New Line.LINE11_Cmpd_27 Bus1=11_280 Bus2=11_373 phases=3 Linecode=4c_.1 Length=7.301714 Units=m
New Line.LINE11_Cmpd_28 Bus1=11_261 Bus2=11_314 phases=3 Linecode=2c_16 Length=4.80218 Units=m
New Line.LINE11_Cmpd_29 Bus1=11_283 Bus2=11_327 phases=3 Linecode=2c_16 Length=3.324801 Units=m
New Line.LINE11_Cmpd_30 Bus1=11_666 Bus2=11_686 phases=3 Linecode=4c_.1 Length=9.62961 Units=m
New Line.LINE11_Cmpd_31 Bus1=11_1 Bus2=11_25 phases=3 Linecode=4c_70 Length=21.863341 Units=m
New Line.LINE11_Cmpd_32 Bus1=11_651 Bus2=11_682 phases=3 Linecode=2c_16 Length=6.02494 Units=m
New Line.LINE11_Cmpd_33 Bus1=11_786 Bus2=11_854 phases=3 Linecode=2c_16 Length=2.29182 Units=m
New Line.LINE11_Cmpd_34 Bus1=11_559 Bus2=11_651 phases=3 Linecode=2c_16 Length=13.71347 Units=m
New Line.LINE11_Cmpd_35 Bus1=11_310 Bus2=11_336 phases=3 Linecode=2c_16 Length=7.69863 Units=m
New Line.LINE11_Cmpd_36 Bus1=11_280 Bus2=11_310 phases=3 Linecode=4c_.06 Length=8.23019 Units=m
New Line.LINE11_Cmpd_37 Bus1=11_475 Bus2=11_508 phases=3 Linecode=4c_.06 Length=16.05858 Units=m
New Line.LINE11_Cmpd_38 Bus1=11_763 Bus2=11_835 phases=3 Linecode=2c_16 Length=5.65812 Units=m
New Line.LINE11_Cmpd_39 Bus1=11_615 Bus2=11_666 phases=3 Linecode=4c_.1 Length=2.70115 Units=m
New Line.LINE11_Cmpd_40 Bus1=11_27 Bus2=11_70 phases=3 Linecode=2c_16 Length=6.747143 Units=m
New Line.LINE11_Cmpd_41 Bus1=11_336 Bus2=11_388 phases=3 Linecode=2c_16 Length=8.52385 Units=m
New Line.LINE11_Cmpd_42 Bus1=11_508 Bus2=11_544 phases=3 Linecode=2c_16 Length=10.65842 Units=m
New Line.LINE11_Cmpd_43 Bus1=11_484 Bus2=11_502 phases=3 Linecode=2c_16 Length=6.6786 Units=m
New Line.LINE11_Cmpd_44 Bus1=11_868 Bus2=11_886 phases=3 Linecode=2c_.0225 Length=7.50839 Units=m
New Line.LINE11_Cmpd_45 Bus1=11_188 Bus2=11_264 phases=3 Linecode=2c_16 Length=8.2381 Units=m
New Line.LINE11_Cmpd_46 Bus1=11_261 Bus2=11_276 phases=3 Linecode=2c_16 Length=6.8846 Units=m
New Line.LINE11_Cmpd_47 Bus1=11_263 Bus2=11_342 phases=3 Linecode=2c_16 Length=14.96775 Units=m
New Line.LINE11_Cmpd_48 Bus1=11_114 Bus2=11_127 phases=3 Linecode=4c_.35 Length=4.17271 Units=m
New Line.LINE11_Cmpd_49 Bus1=11_745 Bus2=11_763 phases=3 Linecode=2c_16 Length=10.8733 Units=m
New Line.LINE11_Cmpd_50 Bus1=11_508 Bus2=11_559 phases=3 Linecode=4c_.06 Length=12.9494 Units=m
New Line.LINE11_Cmpd_51 Bus1=11_453 Bus2=11_475 phases=3 Linecode=4c_.06 Length=13.5743 Units=m
New Line.LINE11_Cmpd_52 Bus1=11_127 Bus2=11_145 phases=3 Linecode=4c_.35 Length=16.0946 Units=m
New Line.LINE11_Cmpd_53 Bus1=11_332 Bus2=11_406 phases=3 Linecode=2c_16 Length=15.785302 Units=m
New Line.LINE11_Cmpd_54 Bus1=11_891 Bus2=11_900 phases=3 Linecode=2c_16 Length=9.6933 Units=m
New Line.LINE11_Cmpd_55 Bus1=11_745 Bus2=11_794 phases=3 Linecode=4c_.06 Length=19.4603 Units=m
New Line.LINE11_Cmpd_56 Bus1=11_718 Bus2=11_739 phases=3 Linecode=2c_16 Length=11.26017 Units=m
New Line.LINE11_Cmpd_57 Bus1=11_578 Bus2=11_594 phases=3 Linecode=4c_.1 Length=4.77453 Units=m
New Line.LINE11_Cmpd_58 Bus1=11_868 Bus2=11_899 phases=3 Linecode=2c_.0225 Length=9.33893 Units=m
New Line.LINE11_Cmpd_59 Bus1=11_101 Bus2=11_114 phases=3 Linecode=4c_70 Length=8.79792 Units=m
New Line.LINE11_Cmpd_60 Bus1=11_188 Bus2=11_208 phases=3 Linecode=2c_16 Length=6.9136 Units=m
New Line.LINE11_Cmpd_61 Bus1=11_263 Bus2=11_280 phases=3 Linecode=4c_.1 Length=4.9913 Units=m
New Line.LINE11_Cmpd_62 Bus1=11_283 Bus2=11_320 phases=3 Linecode=2c_16 Length=7.11685 Units=m
New Line.LINE11_Cmpd_63 Bus1=11_196 Bus2=11_225 phases=3 Linecode=2c_16 Length=18.4592 Units=m
New Line.LINE11_Cmpd_64 Bus1=11_155 Bus2=11_171 phases=3 Linecode=4c_.35 Length=12.3 Units=m
New Line.LINE11_Cmpd_65 Bus1=11_690 Bus2=11_701 phases=3 Linecode=2c_16 Length=6.4573 Units=m
New Line.LINE11_Cmpd_66 Bus1=11_36 Bus2=11_47 phases=3 Linecode=2c_16 Length=6.1526 Units=m
New Line.LINE11_Cmpd_67 Bus1=11_530 Bus2=11_556 phases=3 Linecode=2c_16 Length=9.8006 Units=m
New Line.LINE11_Cmpd_68 Bus1=11_651 Bus2=11_676 phases=3 Linecode=2c_16 Length=5.34659 Units=m
New Line.LINE11_Cmpd_69 Bus1=11_247 Bus2=11_263 phases=3 Linecode=4c_.1 Length=4.06958 Units=m
New Line.LINE11_Cmpd_70 Bus1=11_171 Bus2=11_188 phases=3 Linecode=2c_16 Length=12.4482 Units=m
New Line.LINE11_Cmpd_71 Bus1=11_884 Bus2=11_906 phases=3 Linecode=2c_16 Length=8.09168 Units=m
New Line.LINE11_Cmpd_72 Bus1=11_171 Bus2=11_196 phases=3 Linecode=4c_.35 Length=14.1361 Units=m
New Line.LINE11_Cmpd_73 Bus1=11_884 Bus2=11_898 phases=3 Linecode=35_SAC_XSC Length=10.3363 Units=m
New Line.LINE11_Cmpd_74 Bus1=11_310 Bus2=11_325 phases=3 Linecode=4c_.06 Length=10.6794 Units=m
New Line.LINE11_Cmpd_75 Bus1=11_786 Bus2=11_817 phases=3 Linecode=2c_16 Length=9.7761 Units=m
New Line.LINE11_Cmpd_76 Bus1=11_25 Bus2=11_32 phases=3 Linecode=4c_70 Length=12.6224 Units=m
New Line.LINE11_Cmpd_77 Bus1=11_718 Bus2=11_745 phases=3 Linecode=4c_.06 Length=17.0068 Units=m
New Line.LINE11_Cmpd_78 Bus1=11_594 Bus2=11_615 phases=3 Linecode=4c_.1 Length=9.089 Units=m
New Line.LINE11_Cmpd_79 Bus1=11_763 Bus2=11_780 phases=3 Linecode=2c_16 Length=7.129 Units=m
New Line.LINE11_Cmpd_80 Bus1=11_27 Bus2=11_34 phases=3 Linecode=2c_16 Length=5.3513 Units=m
New Line.LINE11_Cmpd_81 Bus1=11_373 Bus2=11_391 phases=3 Linecode=4c_.1 Length=7.37111 Units=m
New Line.LINE11_Cmpd_82 Bus1=11_336 Bus2=11_349 phases=3 Linecode=2c_16 Length=5.1973 Units=m
New Line.LINE11_Cmpd_83 Bus1=11_505 Bus2=11_522 phases=3 Linecode=2c_16 Length=10.4722 Units=m
New Line.LINE11_Cmpd_84 Bus1=11_544 Bus2=11_562 phases=3 Linecode=2c_16 Length=6.6554 Units=m
New Line.LINE11_Cmpd_85 Bus1=11_325 Bus2=11_337 phases=3 Linecode=2c_16 Length=12.7504 Units=m
New Line.LINE11_Cmpd_86 Bus1=11_739 Bus2=11_755 phases=3 Linecode=2c_16 Length=6.7778 Units=m
New Line.LINE11_Cmpd_87 Bus1=11_707 Bus2=11_718 phases=3 Linecode=4c_.06 Length=15.2459 Units=m
