Test_Network/condensed/network_1/Feeder_1/LoadsCopyUnq.txt
New Load.LOAD11_1 Phases=1 Bus1=11_34.1 kV=0.23 kW=1 PF=0.95
New Load.LOAD11_2 Phases=1 Bus1=11_47.2 kV=0.23 kW=1 PF=0.95
New Load.LOAD11_3 Phases=1 Bus1=11_70.1 kV=0.23 kW=1 PF=0.95
New Load.LOAD11_4 Phases=1 Bus1=11_73.1 kV=0.23 kW=1 PF=0.95
New Load.LOAD11_5 Phases=1 Bus1=11_74.1 kV=0.23 kW=1 PF=0.95
New Load.LOAD11_6 Phases=1 Bus1=11_83.2 kV=0.23 kW=1 PF=0.95
New Load.LOAD11_7 Phases=1 Bus1=11_178.2 kV=0.23 kW=1 PF=0.95
New Load.LOAD11_8 Phases=1 Bus1=11_208.3 kV=0.23 kW=1 PF=0.95
New Load.LOAD11_9 Phases=1 Bus1=11_225.1 kV=0.23 kW=1 PF=0.95
New Load.LOAD11_10 Phases=1 Bus1=11_248.2 kV=0.23 kW=1 PF=0.95
New Load.LOAD11_11 Phases=1 Bus1=11_249.2 kV=0.23 kW=1 PF=0.95
New Load.LOAD11_12 Phases=1 Bus1=11_264.3 kV=0.23 kW=1 PF=0.95
New Load.LOAD11_13 Phases=1 Bus1=11_276.2 kV=0.23 kW=1 PF=0.95
New Load.LOAD11_14 Phases=1 Bus1=11_289.1 kV=0.23 kW=1 PF=0.95
New Load.LOAD11_15 Phases=1 Bus1=11_314.2 kV=0.23 kW=1 PF=0.95
New Load.LOAD11_16 Phases=1 Bus1=11_320.3 kV=0.23 kW=1 PF=0.95
New Load.LOAD11_17 Phases=1 Bus1=11_327.3 kV=0.23 kW=1 PF=0.95
New Load.LOAD11_18 Phases=1 Bus1=11_337.3 kV=0.23 kW=1 PF=0.95
New Load.LOAD11_19 Phases=1 Bus1=11_342.3 kV=0.23 kW=1 PF=0.95
New Load.LOAD11_20 Phases=1 Bus1=11_349.1 kV=0.23 kW=1 PF=0.95
New Load.LOAD11_21 Phases=1 Bus1=11_387.1 kV=0.23 kW=1 PF=0.95
New Load.LOAD11_22 Phases=1 Bus1=11_388.1 kV=0.23 kW=1 PF=0.95
New Load.LOAD11_23 Phases=1 Bus1=11_406.2 kV=0.23 kW=1 PF=0.95
New Load.LOAD11_24 Phases=1 Bus1=11_458.3 kV=0.23 kW=1 PF=0.95
New Load.LOAD11_25 Phases=1 Bus1=11_502.1 kV=0.23 kW=1 PF=0.95
New Load.LOAD11_26 Phases=1 Bus1=11_522.2 kV=0.23 kW=1 PF=0.95
New Load.LOAD11_27 Phases=1 Bus1=11_539.3 kV=0.23 kW=1 PF=0.95
New Load.LOAD11_28 Phases=1 Bus1=11_556.3 kV=0.23 kW=1 PF=0.95
New Load.LOAD11_29 Phases=1 Bus1=11_562.1 kV=0.23 kW=1 PF=0.95
New Load.LOAD11_30 Phases=1 Bus1=11_563.1 kV=0.23 kW=1 PF=0.95
New Load.LOAD11_31 Phases=1 Bus1=11_611.1 kV=0.23 kW=1 PF=0.95
New Load.LOAD11_32 Phases=1 Bus1=11_614.3 kV=0.23 kW=1 PF=0.95
New Load.LOAD11_33 Phases=1 Bus1=11_619.3 kV=0.23 kW=1 PF=0.95
New Load.LOAD11_34 Phases=1 Bus1=11_629.1 kV=0.23 kW=1 PF=0.95
New Load.LOAD11_35 Phases=1 Bus1=11_639.2 kV=0.23 kW=1 PF=0.95
New Load.LOAD11_36 Phases=1 Bus1=11_676.2 kV=0.23 kW=1 PF=0.95
New Load.LOAD11_37 Phases=1 Bus1=11_682.2 kV=0.23 kW=1 PF=0.95
New Load.LOAD11_38 Phases=1 Bus1=11_688.2 kV=0.23 kW=1 PF=0.95
New Load.LOAD11_39 Phases=1 Bus1=11_701.3 kV=0.23 kW=1 PF=0.95
New Load.LOAD11_40 Phases=1 Bus1=11_702.2 kV=0.23 kW=1 PF=0.95
New Load.LOAD11_41 Phases=1 Bus1=11_755.2 kV=0.23 kW=1 PF=0.95
New Load.LOAD11_42 Phases=1 Bus1=11_778.3 kV=0.23 kW=1 PF=0.95
New Load.LOAD11_43 Phases=1 Bus1=11_780.3 kV=0.23 kW=1 PF=0.95
New Load.LOAD11_44 Phases=1 Bus1=11_785.2 kV=0.23 kW=1 PF=0.95
New Load.LOAD11_45 Phases=1 Bus1=11_813.2 kV=0.23 kW=1 PF=0.95
New Load.LOAD11_46 Phases=1 Bus1=11_817.1 kV=0.23 kW=1 PF=0.95
New Load.LOAD11_47 Phases=1 Bus1=11_835.3 kV=0.23 kW=1 PF=0.95
New Load.LOAD11_48 Phases=1 Bus1=11_860.1 kV=0.23 kW=1 PF=0.95
New Load.LOAD11_49 Phases=1 Bus1=11_861.1 kV=0.23 kW=1 PF=0.95
New Load.LOAD11_50 Phases=1 Bus1=11_886.2 kV=0.23 kW=1 PF=0.95
New Load.LOAD11_51 Phases=1 Bus1=11_896.1 kV=0.23 kW=1 PF=0.95
New Load.LOAD11_52 Phases=1 Bus1=11_898.1 kV=0.23 kW=1 PF=0.95
New Load.LOAD11_53 Phases=1 Bus1=11_899.2 kV=0.23 kW=1 PF=0.95
New Load.LOAD11_54 Phases=1 Bus1=11_900.1 kV=0.23 kW=1 PF=0.95
New Load.LOAD11_55 Phases=1 Bus1=11_906.1 kV=0.23 kW=1 PF=0.95
