Test_Network/condensed/network_1/Feeder_2/LinesUnq_pruned.txt
New Line.LINE12_114 Bus1=12_109 Bus2=12_115 phases=3 Linecode=25_SAC_XC Length=18.6333 Units=m
New Line.LINE12_169 Bus1=12_165 Bus2=12_170 phases=3 Linecode=4c_.06 Length=2.1281 Units=m
New Line.LINE12_189 Bus1=12_183 Bus2=12_190 phases=3 Linecode=4c_.06 Length=4.0245 Units=m
New Line.LINE12_209 Bus1=12_201 Bus2=12_210 phases=3 Linecode=4c_.06 Length=12.6298 Units=m
New Line.LINE12_221 Bus1=12_211 Bus2=12_222 phases=3 Linecode=2c_.0225 Length=5.1057 Units=m
New Line.LINE12_222 Bus1=12_211 Bus2=12_223 phases=3 Linecode=2c_.0225 Length=5.1057 Units=m
New Line.LINE12_250 Bus1=12_241 Bus2=12_251 phases=3 Linecode=2c_.0225 Length=6.7186 Units=m
New Line.LINE12_273 Bus1=12_263 Bus2=12_274 phases=3 Linecode=4c_.06 Length=7.6317 Units=m
New Line.LINE12_277 Bus1=12_267 Bus2=12_278 phases=3 Linecode=2c_.0225 Length=4.4991 Units=m
New Line.LINE12_278 Bus1=12_267 Bus2=12_279 phases=3 Linecode=2c_.0225 Length=4.4991 Units=m
New Line.LINE12_318 Bus1=12_311 Bus2=12_319 phases=3 Linecode=2c_.04 Length=7.9319 Units=m
New Line.LINE12_325 Bus1=12_319 Bus2=12_326 phases=3 Linecode=2c_.04 Length=5.3493 Units=m
New Line.LINE12_326 Bus1=12_319 Bus2=12_327 phases=3 Linecode=2c_.04 Length=5.3493 Units=m
New Line.LINE12_350 Bus1=12_344 Bus2=12_351 phases=3 Linecode=4c_.06 Length=13.1234 Units=m
New Line.LINE12_360 Bus1=12_354 Bus2=12_361 phases=3 Linecode=2c_.0225 Length=1.0967 Units=m
New Line.LINE12_361 Bus1=12_354 Bus2=12_362 phases=3 Linecode=2c_.0225 Length=1.0967 Units=m
New Line.LINE12_405 Bus1=12_403 Bus2=12_406 phases=3 Linecode=2c_.0225 Length=5.2004 Units=m
New Line.LINE12_425 Bus1=12_421 Bus2=12_426 phases=3 Linecode=2c_.0225 Length=5.2133 Units=m
New Line.LINE12_454 Bus1=12_452 Bus2=12_455 phases=3 Linecode=2c_.0225 Length=5.158 Units=m
New Line.LINE12_455 Bus1=12_452 Bus2=12_456 phases=3 Linecode=2c_.0225 Length=5.158 Units=m
New Line.LINE12_471 Bus1=12_471 Bus2=12_472 phases=3 Linecode=4c_.06 Length=2.6474 Units=m
New Line.LINE12_Cmpd_0 Bus1=12_170 Bus2=12_181 phases=3 Linecode=2c_.0225 Length=14.7847 Units=m
New Line.LINE12_Cmpd_1 Bus1=12_366 Bus2=12_452 phases=3 Linecode=2c_.0225 Length=10.305898 Units=m
New Line.LINE12_Cmpd_2 Bus1=12_100 Bus2=12_199 phases=3 Linecode=4c_.06 Length=12.785968 Units=m
New Line.LINE12_Cmpd_3 Bus1=12_457 Bus2=12_469 phases=3 Linecode=2c_.0225 Length=11.26687 Units=m
New Line.LINE12_Cmpd_4 Bus1=12_65 Bus2=12_100 phases=3 Linecode=4c_.1 Length=42.60539 Units=m
New Line.LINE12_Cmpd_5 Bus1=12_251 Bus2=12_271 phases=3 Linecode=2c_.0225 Length=5.9651 Units=m
New Line.LINE12_Cmpd_6 Bus1=12_1 Bus2=12_65 phases=3 Linecode=4c_70 Length=76.306289 Units=m
New Line.LINE12_Cmpd_7 Bus1=12_190 Bus2=12_344 phases=3 Linecode=4c_.06 Length=28.22103 Units=m
New Line.LINE12_Cmpd_8 Bus1=12_234 Bus2=12_354 phases=3 Linecode=2c_.0225 Length=10.7246 Units=m
New Line.LINE12_Cmpd_9 Bus1=12_217 Bus2=12_240 phases=3 Linecode=2c_.0225 Length=13.0289 Units=m
New Line.LINE12_Cmpd_10 Bus1=12_190 Bus2=12_267 phases=3 Linecode=2c_.0225 Length=10.1129 Units=m
New Line.LINE12_Cmpd_11 Bus1=12_421 Bus2=12_457 phases=3 Linecode=4c_.06 Length=16.0484 Units=m
New Line.LINE12_Cmpd_12 Bus1=12_199 Bus2=12_332 phases=3 Linecode=2c_.0225 Length=18.12726 Units=m
New Line.LINE12_Cmpd_13 Bus1=12_65 Bus2=12_109 phases=3 Linecode=4c_300_SAC Length=23.33975 Units=m
New Line.LINE12_Cmpd_14 Bus1=12_274 Bus2=12_345 phases=3 Linecode=2c_.0225 Length=14.19401 Units=m
New Line.LINE12_Cmpd_15 Bus1=12_263 Bus2=12_284 phases=3 Linecode=2c_.0225 Length=13.2476 Units=m
New Line.LINE12_Cmpd_16 Bus1=12_100 Bus2=12_143 phases=3 Linecode=4c_.1 Length=18.14295 Units=m
New Line.LINE12_Cmpd_17 Bus1=12_457 Bus2=12_471 phases=3 Linecode=4c_.06 Length=12.646 Units=m
New Line.LINE12_Cmpd_18 Bus1=12_143 Bus2=12_201 phases=3 Linecode=4c_.06 Length=18.50579 Units=m
New Line.LINE12_Cmpd_19 Bus1=12_311 Bus2=12_388 phases=3 Linecode=4c_.06 Length=18.40222 Units=m
New Line.LINE12_Cmpd_20 Bus1=12_406 Bus2=12_443 phases=3 Linecode=2c_.0225 Length=7.05925 Units=m
New Line.LINE12_Cmpd_21 Bus1=12_165 Bus2=12_211 phases=3 Linecode=2c_.0225 Length=10.89 Units=m
New Line.LINE12_Cmpd_22 Bus1=12_388 Bus2=12_403 phases=3 Linecode=4c_.06 Length=12.2146 Units=m
New Line.LINE12_Cmpd_23 Bus1=12_274 Bus2=12_311 phases=3 Linecode=4c_.06 Length=15.5397 Units=m
New Line.LINE12_Cmpd_24 Bus1=12_199 Bus2=12_217 phases=3 Linecode=4c_.06 Length=3.4967 Units=m
New Line.LINE12_Cmpd_25 Bus1=12_143 Bus2=12_165 phases=3 Linecode=4c_.06 Length=11.99209 Units=m
New Line.LINE12_Cmpd_26 Bus1=12_251 Bus2=12_317 phases=3 Linecode=2c_.0225 Length=7.66833 Units=m
New Line.LINE12_Cmpd_27 Bus1=12_426 Bus2=12_461 phases=3 Linecode=2c_.0225 Length=7.355172 Units=m
New Line.LINE12_Cmpd_28 Bus1=12_388 Bus2=12_399 phases=3 Linecode=2c_.0225 Length=10.1249 Units=m
New Line.LINE12_Cmpd_29 Bus1=12_183 Bus2=12_196 phases=3 Linecode=2c_.0225 Length=12.5884 Units=m
New Line.LINE12_Cmpd_30 Bus1=12_403 Bus2=12_421 phases=3 Linecode=4c_.06 Length=14.6645 Units=m
New Line.LINE12_Cmpd_31 Bus1=12_217 Bus2=12_241 phases=3 Linecode=4c_.06 Length=13.9863 Units=m
New Line.LINE12_Cmpd_32 Bus1=12_471 Bus2=12_477 phases=3 Linecode=2c_.0225 Length=11.8922 Units=m
New Line.LINE12_Cmpd_33 Bus1=12_406 Bus2=12_415 phases=3 Linecode=2c_.0225 Length=6.48941 Units=m
New Line.LINE12_Cmpd_34 Bus1=12_351 Bus2=12_366 phases=3 Linecode=4c_.06 Length=5.8788 Units=m
New Line.LINE12_Cmpd_35 Bus1=12_170 Bus2=12_183 phases=3 Linecode=4c_.06 Length=13.1947 Units=m
New Line.LINE12_Cmpd_36 Bus1=12_210 Bus2=12_232 phases=3 Linecode=2c_.0225 Length=11.8998 Units=m
New Line.LINE12_Cmpd_37 Bus1=12_241 Bus2=12_263 phases=3 Linecode=4c_.06 Length=12.4264 Units=m
New Line.LINE12_Cmpd_38 Bus1=12_210 Bus2=12_234 phases=3 Linecode=4c_.06 Length=6.9897 Units=m
New Line.LINE12_Cmpd_39 Bus1=12_472 Bus2=12_479 phases=3 Linecode=2c_.0225 Length=11.8228 Units=m
New Line.LINE12_Cmpd_40 Bus1=12_201 Bus2=12_219 phases=3 Linecode=2c_.0225 Length=12.9803 Units=m
New Line.LINE12_Cmpd_41 Bus1=12_344 Bus2=12_356 phases=3 Linecode=2c_.0225 Length=12.4233 Units=m
New Line.LINE12_Cmpd_42 Bus1=12_426 Bus2=12_440 phases=3 Linecode=2c_.0225 Length=6.337 Units=m
New Line.LINE12_Cmpd_43 Bus1=12_351 Bus2=12_364 phases=3 Linecode=2c_.0225 Length=12.2431 Units=m
