Test_Network/condensed/network_1/Feeder_3/LinesUnq_pruned.txt
New Line.LINE13_75 Bus1=13_73 Bus2=13_76 phases=3 Linecode=4c_70 Length=4.5939 Units=m
New Line.LINE13_79 Bus1=13_76 Bus2=13_80 phases=3 Linecode=4c_70 Length=1.0987 Units=m
New Line.LINE13_84 Bus1=13_80 Bus2=13_85 phases=3 Linecode=4c_70 Length=4.5962 Units=m
New Line.LINE13_88 Bus1=13_85 Bus2=13_89 phases=3 Linecode=4c_70 Length=4.599 Units=m
New Line.LINE13_92 Bus1=13_89 Bus2=13_93 phases=3 Linecode=4c_.06 Length=2.2794 Units=m
New Line.LINE13_96 Bus1=13_93 Bus2=13_97 phases=3 Linecode=2c_16 Length=9.0916 Units=m
New Line.LINE13_116 Bus1=13_111 Bus2=13_117 phases=3 Linecode=2c_16 Length=5.5869 Units=m
New Line.LINE13_117 Bus1=13_111 Bus2=13_118 phases=3 Linecode=2c_16 Length=5.5869 Units=m
New Line.LINE13_195 Bus1=13_191 Bus2=13_196 phases=3 Linecode=2c_16 Length=13.0753 Units=m
New Line.LINE13_203 Bus1=13_199 Bus2=13_204 phases=3 Linecode=25_SAC_XC Length=7.2987 Units=m
New Line.LINE13_204 Bus1=13_199 Bus2=13_205 phases=3 Linecode=4c_.35 Length=7.5601 Units=m
New Line.LINE13_208 Bus1=13_203 Bus2=13_209 phases=3 Linecode=25_SAC_XC Length=2.6236 Units=m
New Line.LINE13_209 Bus1=13_203 Bus2=13_210 phases=3 Linecode=25_SAC_XC Length=2.6236 Units=m
New Line.LINE13_210 Bus1=13_205 Bus2=13_211 phases=3 Linecode=2c_.0225 Length=1.1442 Units=m
New Line.LINE13_214 Bus1=13_211 Bus2=13_215 phases=3 Linecode=2c_.0225 Length=0.23177 Units=m
New Line.LINE13_218 Bus1=13_215 Bus2=13_219 phases=3 Linecode=2c_.0225 Length=0.19331 Units=m
New Line.LINE13_222 Bus1=13_219 Bus2=13_223 phases=3 Linecode=2c_.0225 Length=0.24015 Units=m
New Line.LINE13_226 Bus1=13_223 Bus2=13_227 phases=3 Linecode=2c_.0225 Length=0.34312 Units=m
New Line.LINE13_230 Bus1=13_227 Bus2=13_231 phases=3 Linecode=2c_.0225 Length=1.5534 Units=m
New Line.LINE13_234 Bus1=13_231 Bus2=13_235 phases=3 Linecode=2c_.0225 Length=0.25258 Units=m
New Line.LINE13_236 Bus1=13_233 Bus2=13_237 phases=3 Linecode=2c_25 Length=2.5957 Units=m
New Line.LINE13_237 Bus1=13_233 Bus2=13_238 phases=3 Linecode=2c_25 Length=2.5957 Units=m
New Line.LINE13_239 Bus1=13_235 Bus2=13_240 phases=3 Linecode=2c_.0225 Length=0.15263 Units=m
New Line.LINE13_242 Bus1=13_240 Bus2=13_243 phases=3 Linecode=2c_.0225 Length=0.16981 Units=m
New Line.LINE13_245 Bus1=13_243 Bus2=13_246 phases=3 Linecode=2c_.0225 Length=1.0526 Units=m
New Line.LINE13_248 Bus1=13_246 Bus2=13_249 phases=3 Linecode=2c_.0225 Length=6.0071 Units=m
New Line.LINE13_249 Bus1=13_246 Bus2=13_250 phases=3 Linecode=2c_.0225 Length=6.0071 Units=m
New Line.LINE13_329 Bus1=13_325 Bus2=13_330 phases=3 Linecode=2c_.04 Length=10.8747 Units=m
New Line.LINE13_340 Bus1=13_334 Bus2=13_341 phases=3 Linecode=2c_.0225 Length=10.134 Units=m
New Line.LINE13_378 Bus1=13_373 Bus2=13_379 phases=3 Linecode=2c_.04 Length=4.177 Units=m
New Line.LINE13_379 Bus1=13_373 Bus2=13_380 phases=3 Linecode=2c_.04 Length=4.177 Units=m
New Line.LINE13_390 Bus1=13_385 Bus2=13_391 phases=3 Linecode=2c_.0225 Length=2.9034 Units=m
New Line.LINE13_391 Bus1=13_385 Bus2=13_392 phases=3 Linecode=2c_.0225 Length=2.9034 Units=m
New Line.LINE13_398 Bus1=13_395 Bus2=13_399 phases=3 Linecode=2c_.0225 Length=3.8513 Units=m
New Line.LINE13_447 Bus1=13_443 Bus2=13_448 phases=3 Linecode=4c_.06 Length=5.0725 Units=m
New Line.LINE13_453 Bus1=13_448 Bus2=13_454 phases=3 Linecode=2c_.04 Length=11.4839 Units=m
New Line.LINE13_460 Bus1=13_454 Bus2=13_461 phases=3 Linecode=2c_.04 Length=0.22522 Units=m
New Line.LINE13_465 Bus1=13_461 Bus2=13_466 phases=3 Linecode=2c_.04 Length=0.1414 Units=m
New Line.LINE13_479 Bus1=13_476 Bus2=13_480 phases=3 Linecode=2c_.04 Length=2.7519 Units=m
New Line.LINE13_480 Bus1=13_476 Bus2=13_481 phases=3 Linecode=2c_.04 Length=2.7519 Units=m
New Line.LINE13_502 Bus1=13_502 Bus2=13_503 phases=3 Linecode=2c_.04 Length=8.1196 Units=m
New Line.LINE13_503 Bus1=13_502 Bus2=13_504 phases=3 Linecode=2c_.04 Length=8.1196 Units=m
New Line.LINE13_Cmpd_0 Bus1=13_334 Bus2=13_384 phases=3 Linecode=4c_.06 Length=1.721175 Units=m
New Line.LINE13_Cmpd_1 Bus1=13_1 Bus2=13_65 phases=3 Linecode=4c_70 Length=60.842558 Units=m
New Line.LINE13_Cmpd_2 Bus1=13_120 Bus2=13_139 phases=3 Linecode=4c_.35 Length=2.89606 Units=m
New Line.LINE13_Cmpd_3 Bus1=13_443 Bus2=13_488 phases=3 Linecode=2c_.04 Length=9.582 Units=m
New Line.LINE13_Cmpd_4 Bus1=13_488 Bus2=13_502 phases=3 Linecode=2c_.04 Length=8.15925 Units=m
New Line.LINE13_Cmpd_5 Bus1=13_77 Bus2=13_111 phases=3 Linecode=2c_16 Length=7.94835 Units=m
New Line.LINE13_Cmpd_6 Bus1=13_123 Bus2=13_163 phases=3 Linecode=2c_16 Length=14.54087 Units=m
New Line.LINE13_Cmpd_7 Bus1=13_97 Bus2=13_149 phases=3 Linecode=2c_16 Length=8.38241 Units=m
New Line.LINE13_Cmpd_8 Bus1=13_73 Bus2=13_190 phases=3 Linecode=2c_16 Length=18.0255 Units=m
New Line.LINE13_Cmpd_9 Bus1=13_399 Bus2=13_442 phases=3 Linecode=2c_.0225 Length=9.62974 Units=m
New Line.LINE13_Cmpd_10 Bus1=13_139 Bus2=13_177 phases=3 Linecode=4c_.35 Length=2.02461 Units=m
New Line.LINE13_Cmpd_11 Bus1=13_384 Bus2=13_459 phases=3 Linecode=2c_.0225 Length=17.53028 Units=m
New Line.LINE13_Cmpd_12 Bus1=13_276 Bus2=13_299 phases=3 Linecode=2c_16 Length=6.50587 Units=m
New Line.LINE13_Cmpd_13 Bus1=13_191 Bus2=13_256 phases=3 Linecode=4c_.06 Length=39.21978 Units=m
New Line.LINE13_Cmpd_14 Bus1=13_137 Bus2=13_191 phases=3 Linecode=4c_.06 Length=24.9551 Units=m
New Line.LINE13_Cmpd_15 Bus1=13_77 Bus2=13_106 phases=3 Linecode=4c_.35 Length=9.6374 Units=m
New Line.LINE13_Cmpd_16 Bus1=13_262 Bus2=13_280 phases=3 Linecode=4c_.06 Length=13.24214 Units=m
New Line.LINE13_Cmpd_17 Bus1=13_196 Bus2=13_255 phases=3 Linecode=2c_16 Length=9.996429 Units=m
New Line.LINE13_Cmpd_18 Bus1=13_419 Bus2=13_478 phases=3 Linecode=2c_.0225 Length=15.62709 Units=m
New Line.LINE13_Cmpd_19 Bus1=13_196 Bus2=13_233 phases=3 Linecode=2c_25 Length=8.08534 Units=m
New Line.LINE13_Cmpd_20 Bus1=13_139 Bus2=13_203 phases=3 Linecode=25_SAC_XC Length=5.46941 Units=m
New Line.LINE13_Cmpd_21 Bus1=13_276 Bus2=13_307 phases=3 Linecode=2c_16 Length=7.58898 Units=m
New Line.LINE13_Cmpd_22 Bus1=13_93 Bus2=13_123 phases=3 Linecode=4c_.06 Length=16.4083 Units=m
New Line.LINE13_Cmpd_23 Bus1=13_280 Bus2=13_325 phases=3 Linecode=4c_.06 Length=34.56723 Units=m
New Line.LINE13_Cmpd_24 Bus1=13_262 Bus2=13_276 phases=3 Linecode=2c_16 Length=5.44312 Units=m
New Line.LINE13_Cmpd_25 Bus1=13_330 Bus2=13_373 phases=3 Linecode=2c_.04 Length=2.62955 Units=m
New Line.LINE13_Cmpd_26 Bus1=13_419 Bus2=13_443 phases=3 Linecode=4c_.06 Length=8.28845 Units=m
New Line.LINE13_Cmpd_27 Bus1=13_106 Bus2=13_119 phases=3 Linecode=2c_16 Length=4.9173 Units=m
New Line.LINE13_Cmpd_28 Bus1=13_120 Bus2=13_132 phases=3 Linecode=2c_16 Length=6.8185 Units=m
New Line.LINE13_Cmpd_29 Bus1=13_65 Bus2=13_77 phases=3 Linecode=4c_.35 Length=7.20437 Units=m
New Line.LINE13_Cmpd_30 Bus1=13_395 Bus2=13_419 phases=3 Linecode=4c_.06 Length=6.74645 Units=m
New Line.LINE13_Cmpd_31 Bus1=13_341 Bus2=13_385 phases=3 Linecode=2c_.0225 Length=13.2756 Units=m
New Line.LINE13_Cmpd_32 Bus1=13_177 Bus2=13_188 phases=3 Linecode=2c_.0225 Length=8.2325 Units=m
New Line.LINE13_Cmpd_33 Bus1=13_177 Bus2=13_199 phases=3 Linecode=4c_.35 Length=9.76509 Units=m
New Line.LINE13_Cmpd_34 Bus1=13_280 Bus2=13_288 phases=3 Linecode=2c_.0225 Length=12.4407 Units=m
New Line.LINE13_Cmpd_35 Bus1=13_488 Bus2=13_493 phases=3 Linecode=2c_.04 Length=9.1964 Units=m
New Line.LINE13_Cmpd_36 Bus1=13_466 Bus2=13_475 phases=3 Linecode=2c_.04 Length=8.8019 Units=m
New Line.LINE13_Cmpd_37 Bus1=13_256 Bus2=13_262 phases=3 Linecode=4c_.06 Length=14.6866 Units=m
New Line.LINE13_Cmpd_38 Bus1=13_106 Bus2=13_120 phases=3 Linecode=4c_.35 Length=12.1716 Units=m
New Line.LINE13_Cmpd_39 Bus1=13_341 Bus2=13_359 phases=3 Linecode=2c_.0225 Length=5.1158 Units=m
New Line.LINE13_Cmpd_40 Bus1=13_137 Bus2=13_151 phases=3 Linecode=2c_16 Length=14.1107 Units=m
New Line.LINE13_Cmpd_41 Bus1=13_97 Bus2=13_109 phases=3 Linecode=2c_16 Length=6.9817 Units=m
New Line.LINE13_Cmpd_42 Bus1=13_466 Bus2=13_476 phases=3 Linecode=2c_.04 Length=0.84746 Units=m
New Line.LINE13_Cmpd_43 Bus1=13_123 Bus2=13_137 phases=3 Linecode=4c_.06 Length=3.5684 Units=m
New Line.LINE13_Cmpd_44 Bus1=13_330 Bus2=13_342 phases=3 Linecode=2c_.0225 Length=7.7846 Units=m
New Line.LINE13_Cmpd_45 Bus1=13_399 Bus2=13_412 phases=3 Linecode=2c_.0225 Length=6.5449 Units=m
New Line.LINE13_Cmpd_46 Bus1=13_256 Bus2=13_261 phases=3 Linecode=2c_16 Length=12.9546 Units=m
New Line.LINE13_Cmpd_47 Bus1=13_65 Bus2=13_73 phases=3 Linecode=4c_70 Length=19.5676 Units=m
New Line.LINE13_Cmpd_48 Bus1=13_384 Bus2=13_395 phases=3 Linecode=4c_.06 Length=3.98242 Units=m
New Line.LINE13_Cmpd_49 Bus1=13_325 Bus2=13_334 phases=3 Linecode=4c_.06 Length=12.4756 Units=m
New Line.LINE13_Cmpd_50 Bus1=13_76 Bus2=13_84 phases=3 Linecode=2c_16 Length=15.4044 Units=m
