Test_Network/condensed/network_1/Feeder_3/LoadsCopyUnq.txt
New Load.LOAD13_1 Phases=1 Bus1=13_84.3 kV=0.23 kW=1 PF=0.95
New Load.LOAD13_2 Phases=1 Bus1=13_109.2 kV=0.23 kW=1 PF=0.95
New Load.LOAD13_3 Phases=1 Bus1=13_117.2 kV=0.23 kW=1 PF=0.95
New Load.LOAD13_4 Phases=1 Bus1=13_118.2 kV=0.23 kW=1 PF=0.95
New Load.LOAD13_5 Phases=1 Bus1=13_119.1 kV=0.23 kW=1 PF=0.95
New Load.LOAD13_6 Phases=1 Bus1=13_132.3 kV=0.23 kW=1 PF=0.95
New Load.LOAD13_7 Phases=1 Bus1=13_149.2 kV=0.23 kW=1 PF=0.95
New Load.LOAD13_8 Phases=1 Bus1=13_151.3 kV=0.23 kW=1 PF=0.95
New Load.LOAD13_9 Phases=1 Bus1=13_163.1 kV=0.23 kW=1 PF=0.95
New Load.LOAD13_10 Phases=1 Bus1=13_188.2 kV=0.23 kW=1 PF=0.95
New Load.LOAD13_11 Phases=1 Bus1=13_190.1 kV=0.23 kW=1 PF=0.95
New Load.LOAD13_12 Phases=1 Bus1=13_204.1 kV=0.23 kW=1 PF=0.95
New Load.LOAD13_13 Phases=1 Bus1=13_209.1 kV=0.23 kW=1 PF=0.95
New Load.LOAD13_14 Phases=1 Bus1=13_210.1 kV=0.23 kW=1 PF=0.95
New Load.LOAD13_15 Phases=1 Bus1=13_237.2 kV=0.23 kW=1 PF=0.95
New Load.LOAD13_16 Phases=1 Bus1=13_238.2 kV=0.23 kW=1 PF=0.95
New Load.LOAD13_17 Phases=1 Bus1=13_249.3 kV=0.23 kW=1 PF=0.95
New Load.LOAD13_18 Phases=1 Bus1=13_250.3 kV=0.23 kW=1 PF=0.95
New Load.LOAD13_19 Phases=1 Bus1=13_255.2 kV=0.23 kW=1 PF=0.95
New Load.LOAD13_20 Phases=1 Bus1=13_261.3 kV=0.23 kW=1 PF=0.95
New Load.LOAD13_21 Phases=1 Bus1=13_288.2 kV=0.23 kW=1 PF=0.95
New Load.LOAD13_22 Phases=1 Bus1=13_299.1 kV=0.23 kW=1 PF=0.95
New Load.LOAD13_23 Phases=1 Bus1=13_307.1 kV=0.23 kW=1 PF=0.95
New Load.LOAD13_24 Phases=1 Bus1=13_342.3 kV=0.23 kW=1 PF=0.95
New Load.LOAD13_25 Phases=1 Bus1=13_359.1 kV=0.23 kW=1 PF=0.95
New Load.LOAD13_26 Phases=1 Bus1=13_379.3 kV=0.23 kW=1 PF=0.95
New Load.LOAD13_27 Phases=1 Bus1=13_380.3 kV=0.23 kW=1 PF=0.95
New Load.LOAD13_28 Phases=1 Bus1=13_391.1 kV=0.23 kW=1 PF=0.95
New Load.LOAD13_29 Phases=1 Bus1=13_392.1 kV=0.23 kW=1 PF=0.95
New Load.LOAD13_30 Phases=1 Bus1=13_412.2 kV=0.23 kW=1 PF=0.95
New Load.LOAD13_31 Phases=1 Bus1=13_442.2 kV=0.23 kW=1 PF=0.95
New Load.LOAD13_32 Phases=1 Bus1=13_459.3 kV=0.23 kW=1 PF=0.95
New Load.LOAD13_33 Phases=1 Bus1=13_475.3 kV=0.23 kW=1 PF=0.95
New Load.LOAD13_34 Phases=1 Bus1=13_478.2 kV=0.23 kW=1 PF=0.95
New Load.LOAD13_35 Phases=1 Bus1=13_480.3 kV=0.23 kW=1 PF=0.95
New Load.LOAD13_36 Phases=1 Bus1=13_481.3 kV=0.23 kW=1 PF=0.95
New Load.LOAD13_37 Phases=1 Bus1=13_493.1 kV=0.23 kW=1 PF=0.95
New Load.LOAD13_38 Phases=1 Bus1=13_503.1 kV=0.23 kW=1 PF=0.95
New Load.LOAD13_39 Phases=1 Bus1=13_504.1 kV=0.23 kW=1 PF=0.95
