Test_Network/condensed/network_1/Feeder_4/LinesUnq_pruned.txt
New Line.LINE14_25 Bus1=14_25 Bus2=14_26 phases=3 Linecode=2c_16 Length=10.1369 Units=m
New Line.LINE14_51 Bus1=14_47 Bus2=14_52 phases=3 Linecode=2c_16 Length=5.4578 Units=m
New Line.LINE14_52 Bus1=14_47 Bus2=14_53 phases=3 Linecode=2c_16 Length=5.4578 Units=m
New Line.LINE14_73 Bus1=14_70 Bus2=14_74 phases=3 Linecode=2c_16 Length=7.0789 Units=m
New Line.LINE14_74 Bus1=14_70 Bus2=14_75 phases=3 Linecode=2c_16 Length=7.0789 Units=m
New Line.LINE14_145 Bus1=14_139 Bus2=14_146 phases=3 Linecode=4c_.35 Length=0.81707 Units=m
New Line.LINE14_146 Bus1=14_139 Bus2=14_147 phases=3 Linecode=2c_16 Length=12.2672 Units=m
New Line.LINE14_153 Bus1=14_146 Bus2=14_154 phases=3 Linecode=4c_.35 Length=3.0035 Units=m
New Line.LINE14_158 Bus1=14_149 Bus2=14_159 phases=3 Linecode=2c_16 Length=11.3628 Units=m
New Line.LINE14_164 Bus1=14_154 Bus2=14_165 phases=3 Linecode=4c_.35 Length=1.9437 Units=m
New Line.LINE14_178 Bus1=14_165 Bus2=14_179 phases=3 Linecode=4c_.35 Length=2.6592 Units=m
New Line.LINE14_191 Bus1=14_179 Bus2=14_192 phases=3 Linecode=4c_.35 Length=2.2367 Units=m
New Line.LINE14_203 Bus1=14_192 Bus2=14_204 phases=3 Linecode=4c_.35 Length=2.2392 Units=m
New Line.LINE14_215 Bus1=14_204 Bus2=14_216 phases=3 Linecode=4c_.35 Length=0.87991 Units=m
New Line.LINE14_227 Bus1=14_216 Bus2=14_228 phases=3 Linecode=2c_16 Length=6.6322 Units=m
New Line.LINE14_239 Bus1=14_228 Bus2=14_240 phases=3 Linecode=2c_16 Length=0.37459 Units=m
New Line.LINE14_246 Bus1=14_234 Bus2=14_247 phases=3 Linecode=2c_25 Length=4.6779 Units=m
New Line.LINE14_247 Bus1=14_234 Bus2=14_248 phases=3 Linecode=2c_25 Length=4.6779 Units=m
New Line.LINE14_254 Bus1=14_240 Bus2=14_255 phases=3 Linecode=2c_16 Length=0.2864 Units=m
New Line.LINE14_265 Bus1=14_255 Bus2=14_266 phases=3 Linecode=2c_16 Length=0.26559 Units=m
New Line.LINE14_278 Bus1=14_266 Bus2=14_279 phases=3 Linecode=2c_16 Length=0.35052 Units=m
New Line.LINE14_286 Bus1=14_274 Bus2=14_287 phases=3 Linecode=2c_16 Length=6.2806 Units=m
New Line.LINE14_287 Bus1=14_274 Bus2=14_288 phases=3 Linecode=2c_16 Length=0.65928 Units=m
New Line.LINE14_292 Bus1=14_279 Bus2=14_293 phases=3 Linecode=2c_16 Length=2.3296 Units=m
New Line.LINE14_298 Bus1=14_284 Bus2=14_299 phases=3 Linecode=4c_70 Length=2.3625 Units=m
New Line.LINE14_301 Bus1=14_287 Bus2=14_302 phases=3 Linecode=2c_16 Length=8.3858 Units=m
New Line.LINE14_302 Bus1=14_287 Bus2=14_303 phases=3 Linecode=2c_16 Length=3.0457 Units=m
New Line.LINE14_307 Bus1=14_293 Bus2=14_308 phases=3 Linecode=2c_16 Length=0.18926 Units=m
New Line.LINE14_311 Bus1=14_299 Bus2=14_312 phases=3 Linecode=4c_.1 Length=5.5191 Units=m
New Line.LINE14_319 Bus1=14_308 Bus2=14_320 phases=3 Linecode=2c_16 Length=0.2188 Units=m
New Line.LINE14_322 Bus1=14_312 Bus2=14_323 phases=3 Linecode=4c_.1 Length=1.1295 Units=m
New Line.LINE14_331 Bus1=14_320 Bus2=14_332 phases=3 Linecode=2c_16 Length=0.19741 Units=m
New Line.LINE14_334 Bus1=14_323 Bus2=14_335 phases=3 Linecode=4c_.1 Length=3.8224 Units=m
New Line.LINE14_345 Bus1=14_332 Bus2=14_346 phases=3 Linecode=2c_16 Length=1.9704 Units=m
New Line.LINE14_348 Bus1=14_335 Bus2=14_349 phases=3 Linecode=4c_.1 Length=3.0977 Units=m
New Line.LINE14_359 Bus1=14_346 Bus2=14_360 phases=3 Linecode=2c_16 Length=0.061033 Units=m
New Line.LINE14_372 Bus1=14_360 Bus2=14_373 phases=3 Linecode=2c_16 Length=0.064351 Units=m
New Line.LINE14_383 Bus1=14_372 Bus2=14_384 phases=3 Linecode=2c_16 Length=10.1257 Units=m
New Line.LINE14_385 Bus1=14_373 Bus2=14_386 phases=3 Linecode=2c_16 Length=0.047539 Units=m
New Line.LINE14_396 Bus1=14_382 Bus2=14_397 phases=3 Linecode=2c_16 Length=4.8984 Units=m
New Line.LINE14_402 Bus1=14_386 Bus2=14_403 phases=3 Linecode=2c_16 Length=0.059135 Units=m
New Line.LINE14_419 Bus1=14_403 Bus2=14_420 phases=3 Linecode=2c_16 Length=0.052154 Units=m
New Line.LINE14_432 Bus1=14_420 Bus2=14_433 phases=3 Linecode=2c_16 Length=0.05316 Units=m
New Line.LINE14_445 Bus1=14_433 Bus2=14_446 phases=3 Linecode=2c_16 Length=0.089894 Units=m
New Line.LINE14_446 Bus1=14_434 Bus2=14_447 phases=3 Linecode=2c_.0225 Length=4.5589 Units=m
New Line.LINE14_447 Bus1=14_434 Bus2=14_448 phases=3 Linecode=2c_.0225 Length=4.5589 Units=m
New Line.LINE14_457 Bus1=14_446 Bus2=14_458 phases=3 Linecode=2c_16 Length=1.0885 Units=m
New Line.LINE14_467 Bus1=14_458 Bus2=14_468 phases=3 Linecode=2c_16 Length=5.8174 Units=m
New Line.LINE14_515 Bus1=14_509 Bus2=14_516 phases=3 Linecode=4c_.1 Length=2.6435 Units=m
New Line.LINE14_589 Bus1=14_584 Bus2=14_590 phases=3 Linecode=2c_.0225 Length=5.4565 Units=m
New Line.LINE14_590 Bus1=14_584 Bus2=14_591 phases=3 Linecode=2c_.0225 Length=5.4565 Units=m
New Line.LINE14_644 Bus1=14_636 Bus2=14_645 phases=3 Linecode=2c_16 Length=5.1742 Units=m
New Line.LINE14_733 Bus1=14_727 Bus2=14_734 phases=3 Linecode=4c_.06 Length=0.3233 Units=m
New Line.LINE14_740 Bus1=14_734 Bus2=14_741 phases=3 Linecode=4c_.06 Length=0.605 Units=m
New Line.LINE14_748 Bus1=14_741 Bus2=14_749 phases=3 Linecode=4c_.06 Length=7.1217 Units=m
New Line.LINE14_755 Bus1=14_749 Bus2=14_756 phases=3 Linecode=4c_.06 Length=0.40321 Units=m
New Line.LINE14_762 Bus1=14_756 Bus2=14_763 phases=3 Linecode=4c_.06 Length=0.42048 Units=m
New Line.LINE14_771 Bus1=14_763 Bus2=14_772 phases=3 Linecode=4c_.06 Length=0.78485 Units=m
New Line.LINE14_778 Bus1=14_772 Bus2=14_779 phases=3 Linecode=4c_.06 Length=0.42155 Units=m
New Line.LINE14_785 Bus1=14_779 Bus2=14_786 phases=3 Linecode=4c_.06 Length=0.30887 Units=m
New Line.LINE14_791 Bus1=14_786 Bus2=14_792 phases=3 Linecode=4c_.06 Length=0.39187 Units=m
New Line.LINE14_797 Bus1=14_792 Bus2=14_798 phases=3 Linecode=4c_.06 Length=2.9463 Units=m
New Line.LINE14_803 Bus1=14_798 Bus2=14_804 phases=3 Linecode=2c_16 Length=4.8405 Units=m
New Line.LINE14_810 Bus1=14_804 Bus2=14_811 phases=3 Linecode=2c_16 Length=0.44531 Units=m
New Line.LINE14_818 Bus1=14_811 Bus2=14_819 phases=3 Linecode=2c_16 Length=0.10208 Units=m
New Line.LINE14_824 Bus1=14_819 Bus2=14_825 phases=3 Linecode=2c_16 Length=0.16603 Units=m
New Line.LINE14_831 Bus1=14_825 Bus2=14_832 phases=3 Linecode=2c_16 Length=0.147 Units=m
New Line.LINE14_837 Bus1=14_832 Bus2=14_838 phases=3 Linecode=2c_16 Length=0.48196 Units=m
New Line.LINE14_840 Bus1=14_834 Bus2=14_841 phases=3 Linecode=4c_.1 Length=7.903 Units=m
New Line.LINE14_843 Bus1=14_838 Bus2=14_844 phases=3 Linecode=2c_16 Length=0.40877 Units=m
New Line.LINE14_850 Bus1=14_844 Bus2=14_851 phases=3 Linecode=2c_16 Length=0.24286 Units=m
New Line.LINE14_856 Bus1=14_851 Bus2=14_857 phases=3 Linecode=2c_16 Length=0.26875 Units=m
New Line.LINE14_861 Bus1=14_857 Bus2=14_862 phases=3 Linecode=2c_16 Length=0.18927 Units=m
New Line.LINE14_866 Bus1=14_862 Bus2=14_867 phases=3 Linecode=2c_16 Length=0.32812 Units=m
New Line.LINE14_871 Bus1=14_867 Bus2=14_872 phases=3 Linecode=2c_16 Length=1.6631 Units=m
New Line.LINE14_877 Bus1=14_872 Bus2=14_878 phases=3 Linecode=2c_16 Length=0.44364 Units=m
New Line.LINE14_880 Bus1=14_875 Bus2=14_881 phases=3 Linecode=4c_.1 Length=6.8244 Units=m
New Line.LINE14_883 Bus1=14_878 Bus2=14_884 phases=3 Linecode=2c_16 Length=0.15023 Units=m
New Line.LINE14_886 Bus1=14_881 Bus2=14_887 phases=3 Linecode=4c_.1 Length=7.2792 Units=m
New Line.LINE14_890 Bus1=14_884 Bus2=14_891 phases=3 Linecode=2c_16 Length=0.1072 Units=m
New Line.LINE14_896 Bus1=14_891 Bus2=14_897 phases=3 Linecode=2c_16 Length=0.12126 Units=m
New Line.LINE14_985 Bus1=14_977 Bus2=14_986 phases=3 Linecode=4c_.06 Length=10.2993 Units=m
New Line.LINE14_994 Bus1=14_986 Bus2=14_995 phases=3 Linecode=4c_.06 Length=0.38687 Units=m
New Line.LINE14_1002 Bus1=14_995 Bus2=14_1003 phases=3 Linecode=4c_.06 Length=0.25739 Units=m
New Line.LINE14_1009 Bus1=14_1003 Bus2=14_1010 phases=3 Linecode=4c_.06 Length=0.18436 Units=m
New Line.LINE14_1016 Bus1=14_1010 Bus2=14_1017 phases=3 Linecode=4c_.06 Length=0.22862 Units=m
New Line.LINE14_1023 Bus1=14_1017 Bus2=14_1024 phases=3 Linecode=4c_.06 Length=0.24098 Units=m
New Line.LINE14_1029 Bus1=14_1024 Bus2=14_1030 phases=3 Linecode=4c_.06 Length=0.31699 Units=m
New Line.LINE14_1035 Bus1=14_1030 Bus2=14_1036 phases=3 Linecode=4c_.06 Length=2.4781 Units=m
New Line.LINE14_1041 Bus1=14_1036 Bus2=14_1042 phases=3 Linecode=3c_95_SAC_ASN Length=7.8993 Units=m
New Line.LINE14_1047 Bus1=14_1042 Bus2=14_1048 phases=3 Linecode=3c_95_SAC_ASN Length=1.0414 Units=m
New Line.LINE14_1053 Bus1=14_1048 Bus2=14_1054 phases=3 Linecode=3c_95_SAC_ASN Length=0.73642 Units=m
New Line.LINE14_1057 Bus1=14_1054 Bus2=14_1058 phases=3 Linecode=3c_95_SAC_ASN Length=1.5098 Units=m
New Line.LINE14_1061 Bus1=14_1058 Bus2=14_1062 phases=3 Linecode=3c_95_SAC_ASN Length=8.6694 Units=m
New Line.LINE14_1066 Bus1=14_1062 Bus2=14_1067 phases=3 Linecode=3c_95_SAC_ASN Length=3.2869 Units=m
New Line.LINE14_1069 Bus1=14_1065 Bus2=14_1070 phases=3 Linecode=4c_.1 Length=9.7646 Units=m
New Line.LINE14_1072 Bus1=14_1067 Bus2=14_1073 phases=3 Linecode=3c_95_SAC_ASN Length=2.68 Units=m
New Line.LINE14_1075 Bus1=14_1070 Bus2=14_1076 phases=3 Linecode=4c_.1 Length=5.8051 Units=m
New Line.LINE14_1079 Bus1=14_1073 Bus2=14_1080 phases=3 Linecode=3c_95_SAC_ASN Length=3.0909 Units=m
New Line.LINE14_1086 Bus1=14_1080 Bus2=14_1087 phases=3 Linecode=3c_95_SAC_ASN Length=37.8819 Units=m
New Line.LINE14_1092 Bus1=14_1087 Bus2=14_1093 phases=3 Linecode=4c_95_SAC_XC Length=8.1468 Units=m
New Line.LINE14_1097 Bus1=14_1093 Bus2=14_1098 phases=3 Linecode=4c_95_SAC_XC Length=6.2134 Units=m
New Line.LINE14_1101 Bus1=14_1098 Bus2=14_1102 phases=3 Linecode=4c_95_SAC_XC Length=0.24761 Units=m
New Line.LINE14_1105 Bus1=14_1102 Bus2=14_1106 phases=3 Linecode=4c_95_SAC_XC Length=0.24613 Units=m
New Line.LINE14_1109 Bus1=14_1106 Bus2=14_1110 phases=3 Linecode=4c_95_SAC_XC Length=0.4614 Units=m
New Line.LINE14_1113 Bus1=14_1110 Bus2=14_1114 phases=3 Linecode=4c_95_SAC_XC Length=2.6215 Units=m
New Line.LINE14_1117 Bus1=14_1114 Bus2=14_1118 phases=3 Linecode=4c_95_SAC_XC Length=0.84712 Units=m
New Line.LINE14_1121 Bus1=14_1118 Bus2=14_1122 phases=3 Linecode=4c_95_SAC_XC Length=4.9904 Units=m
New Line.LINE14_1125 Bus1=14_1122 Bus2=14_1126 phases=3 Linecode=4c_95_SAC_XC Length=54.682 Units=m
New Line.LINE14_1129 Bus1=14_1126 Bus2=14_1130 phases=3 Linecode=4c_95_SAC_XC Length=50.1986 Units=m
New Line.LINE14_1133 Bus1=14_1130 Bus2=14_1134 phases=3 Linecode=4c_95_SAC_XC Length=47.8102 Units=m
New Line.LINE14_1156 Bus1=14_1156 Bus2=14_1157 phases=3 Linecode=4c_.1 Length=2.8873 Units=m
New Line.LINE14_1186 Bus1=14_1184 Bus2=14_1187 phases=3 Linecode=2c_.022 Length=8.2247 Units=m
New Line.LINE14_1213 Bus1=14_1210 Bus2=14_1214 phases=3 Linecode=4c_.1 Length=0.48899 Units=m
New Line.LINE14_1216 Bus1=14_1214 Bus2=14_1217 phases=3 Linecode=4c_.1 Length=2.0321 Units=m
New Line.LINE14_1218 Bus1=14_1217 Bus2=14_1219 phases=3 Linecode=4c_.1 Length=1.28 Units=m
New Line.LINE14_1220 Bus1=14_1219 Bus2=14_1221 phases=3 Linecode=4c_.1 Length=4.098 Units=m
New Line.LINE14_1222 Bus1=14_1221 Bus2=14_1223 phases=3 Linecode=2c_.0225 Length=0.12763 Units=m
New Line.LINE14_1223 Bus1=14_1223 Bus2=14_1224 phases=3 Linecode=2c_.0225 Length=0.1714 Units=m
New Line.LINE14_1224 Bus1=14_1224 Bus2=14_1225 phases=3 Linecode=2c_.0225 Length=0.14654 Units=m
New Line.LINE14_1225 Bus1=14_1225 Bus2=14_1226 phases=3 Linecode=2c_.0225 Length=0.128 Units=m
New Line.LINE14_1226 Bus1=14_1226 Bus2=14_1227 phases=3 Linecode=2c_.0225 Length=0.30359 Units=m
New Line.LINE14_1227 Bus1=14_1227 Bus2=14_1228 phases=3 Linecode=2c_.0225 Length=0.21249 Units=m
New Line.LINE14_1228 Bus1=14_1228 Bus2=14_1229 phases=3 Linecode=2c_.0225 Length=10.4399 Units=m
New Line.LINE14_1229 Bus1=14_1229 Bus2=14_1230 phases=3 Linecode=2c_.0225 Length=5.0515 Units=m
New Line.LINE14_Cmpd_0 Bus1=14_897 Bus2=14_1022 phases=3 Linecode=2c_16 Length=11.42522 Units=m
New Line.LINE14_Cmpd_1 Bus1=14_549 Bus2=14_799 phases=3 Linecode=4c_.1 Length=40.1683 Units=m
New Line.LINE14_Cmpd_2 Bus1=14_1156 Bus2=14_1161 phases=3 Linecode=2c_.0225 Length=13.6364 Units=m
New Line.LINE14_Cmpd_3 Bus1=14_841 Bus2=14_875 phases=3 Linecode=4c_.1 Length=10.09443 Units=m
New Line.LINE14_Cmpd_4 Bus1=14_384 Bus2=14_522 phases=3 Linecode=2c_16 Length=4.726182 Units=m
New Line.LINE14_Cmpd_5 Bus1=14_84 Bus2=14_153 phases=3 Linecode=2c_16 Length=10.45979 Units=m
New Line.LINE14_Cmpd_6 Bus1=14_149 Bus2=14_231 phases=3 Linecode=4c_70 Length=15.8569 Units=m
New Line.LINE14_Cmpd_7 Bus1=14_820 Bus2=14_833 phases=3 Linecode=2c_.0225 Length=16.5379 Units=m
New Line.LINE14_Cmpd_8 Bus1=14_938 Bus2=14_1050 phases=3 Linecode=2c_.0225 Length=17.67265 Units=m
New Line.LINE14_Cmpd_9 Bus1=14_516 Bus2=14_584 phases=3 Linecode=2c_.0225 Length=10.31015 Units=m
New Line.LINE14_Cmpd_10 Bus1=14_225 Bus2=14_382 phases=3 Linecode=2c_16 Length=14.505165 Units=m
New Line.LINE14_Cmpd_11 Bus1=14_372 Bus2=14_585 phases=3 Linecode=4c_.06 Length=25.655544 Units=m
New Line.LINE14_Cmpd_12 Bus1=14_349 Bus2=14_459 phases=3 Linecode=4c_.1 Length=15.4385 Units=m
New Line.LINE14_Cmpd_13 Bus1=14_349 Bus2=14_492 phases=3 Linecode=2c_.0225 Length=19.76837 Units=m
New Line.LINE14_Cmpd_14 Bus1=14_977 Bus2=14_1065 phases=3 Linecode=4c_.1 Length=20.67172 Units=m
New Line.LINE14_Cmpd_15 Bus1=14_897 Bus2=14_945 phases=3 Linecode=2c_16 Length=3.762047 Units=m
New Line.LINE14_Cmpd_16 Bus1=14_1 Bus2=14_25 phases=3 Linecode=4c_70 Length=54.636444 Units=m
New Line.LINE14_Cmpd_17 Bus1=14_160 Bus2=14_234 phases=3 Linecode=2c_25 Length=4.20504 Units=m
New Line.LINE14_Cmpd_18 Bus1=14_84 Bus2=14_101 phases=3 Linecode=4c_.35 Length=15.5199 Units=m
New Line.LINE14_Cmpd_19 Bus1=14_116 Bus2=14_174 phases=3 Linecode=2c_16 Length=15.80622 Units=m
New Line.LINE14_Cmpd_20 Bus1=14_1100 Bus2=14_1144 phases=3 Linecode=2c_.0225 Length=13.15101 Units=m
New Line.LINE14_Cmpd_21 Bus1=14_887 Bus2=14_1000 phases=3 Linecode=2c_.0225 Length=13.06953 Units=m
New Line.LINE14_Cmpd_22 Bus1=14_605 Bus2=14_631 phases=3 Linecode=2c_16 Length=9.25759 Units=m
New Line.LINE14_Cmpd_23 Bus1=14_181 Bus2=14_206 phases=3 Linecode=2c_16 Length=6.0979 Units=m
New Line.LINE14_Cmpd_24 Bus1=14_153 Bus2=14_292 phases=3 Linecode=2c_16 Length=8.868836 Units=m
New Line.LINE14_Cmpd_25 Bus1=14_631 Bus2=14_679 phases=3 Linecode=2c_16 Length=6.00783 Units=m
New Line.LINE14_Cmpd_26 Bus1=14_1166 Bus2=14_1184 phases=3 Linecode=4c_.1 Length=12.11178 Units=m
New Line.LINE14_Cmpd_27 Bus1=14_898 Bus2=14_989 phases=3 Linecode=2c_.0225 Length=10.59284 Units=m
New Line.LINE14_Cmpd_28 Bus1=14_44 Bus2=14_84 phases=3 Linecode=4c_.35 Length=35.85086 Units=m
New Line.LINE14_Cmpd_29 Bus1=14_380 Bus2=14_473 phases=3 Linecode=2c_16 Length=8.663245 Units=m
New Line.LINE14_Cmpd_30 Bus1=14_225 Bus2=14_291 phases=3 Linecode=4c_.06 Length=16.0809 Units=m
New Line.LINE14_Cmpd_31 Bus1=14_1187 Bus2=14_1212 phases=3 Linecode=2c_.022 Length=7.2967 Units=m
New Line.LINE14_Cmpd_32 Bus1=14_687 Bus2=14_708 phases=3 Linecode=2c_16 Length=12.069 Units=m
New Line.LINE14_Cmpd_33 Bus1=14_481 Bus2=14_520 phases=3 Linecode=2c_.0225 Length=9.174508 Units=m
New Line.LINE14_Cmpd_34 Bus1=14_26 Bus2=14_47 phases=3 Linecode=2c_16 Length=3.24638 Units=m
New Line.LINE14_Cmpd_35 Bus1=14_459 Bus2=14_509 phases=3 Linecode=4c_.1 Length=14.4004 Units=m
New Line.LINE14_Cmpd_36 Bus1=14_834 Bus2=14_886 phases=3 Linecode=2c_.0225 Length=17.78346 Units=m
New Line.LINE14_Cmpd_37 Bus1=14_258 Bus2=14_434 phases=3 Linecode=2c_.0225 Length=26.07368 Units=m
New Line.LINE14_Cmpd_38 Bus1=14_50 Bus2=14_70 phases=3 Linecode=2c_16 Length=2.53242 Units=m
New Line.LINE14_Cmpd_39 Bus1=14_44 Bus2=14_80 phases=3 Linecode=4c_70 Length=12.70951 Units=m
New Line.LINE14_Cmpd_40 Bus1=14_632 Bus2=14_739 phases=3 Linecode=2c_16 Length=10.90506 Units=m
New Line.LINE14_Cmpd_41 Bus1=14_80 Bus2=14_93 phases=3 Linecode=4c_70 Length=11.54 Units=m
New Line.LINE14_Cmpd_42 Bus1=14_585 Bus2=14_636 phases=3 Linecode=2c_16 Length=5.13646 Units=m
New Line.LINE14_Cmpd_43 Bus1=14_382 Bus2=14_414 phases=3 Linecode=2c_16 Length=9.9679 Units=m
New Line.LINE14_Cmpd_44 Bus1=14_330 Bus2=14_484 phases=3 Linecode=2c_16 Length=7.00036 Units=m
New Line.LINE14_Cmpd_45 Bus1=14_147 Bus2=14_280 phases=3 Linecode=2c_16 Length=8.95362 Units=m
New Line.LINE14_Cmpd_46 Bus1=14_881 Bus2=14_960 phases=3 Linecode=2c_.0225 Length=18.548293 Units=m
New Line.LINE14_Cmpd_47 Bus1=14_1100 Bus2=14_1156 phases=3 Linecode=4c_.1 Length=9.99956 Units=m
New Line.LINE14_Cmpd_48 Bus1=14_25 Bus2=14_37 phases=3 Linecode=4c_70 Length=19.8543 Units=m
New Line.LINE14_Cmpd_49 Bus1=14_101 Bus2=14_139 phases=3 Linecode=4c_.35 Length=16.564 Units=m
New Line.LINE14_Cmpd_50 Bus1=14_636 Bus2=14_783 phases=3 Linecode=2c_16 Length=12.11021 Units=m
New Line.LINE14_Cmpd_51 Bus1=14_231 Bus2=14_380 phases=3 Linecode=2c_16 Length=15.53551 Units=m
New Line.LINE14_Cmpd_52 Bus1=14_1157 Bus2=14_1166 phases=3 Linecode=4c_.1 Length=10.77682 Units=m
New Line.LINE14_Cmpd_53 Bus1=14_898 Bus2=14_921 phases=3 Linecode=4c_.1 Length=11.4748 Units=m
New Line.LINE14_Cmpd_54 Bus1=14_1199 Bus2=14_1207 phases=3 Linecode=2c_.0225 Length=11.4721 Units=m
New Line.LINE14_Cmpd_55 Bus1=14_162 Bus2=14_274 phases=3 Linecode=2c_16 Length=12.621488 Units=m
New Line.LINE14_Cmpd_56 Bus1=14_739 Bus2=14_831 phases=3 Linecode=2c_16 Length=14.50815 Units=m
New Line.LINE14_Cmpd_57 Bus1=14_481 Bus2=14_554 phases=3 Linecode=2c_.0225 Length=5.05037 Units=m
New Line.LINE14_Cmpd_58 Bus1=14_799 Bus2=14_816 phases=3 Linecode=2c_.0225 Length=14.4331 Units=m
New Line.LINE14_Cmpd_59 Bus1=14_1070 Bus2=14_1085 phases=3 Linecode=2c_.0225 Length=10.1473 Units=m
New Line.LINE14_Cmpd_60 Bus1=14_631 Bus2=14_692 phases=3 Linecode=2c_16 Length=5.251367 Units=m
New Line.LINE14_Cmpd_61 Bus1=14_799 Bus2=14_820 phases=3 Linecode=4c_.1 Length=10.9981 Units=m
New Line.LINE14_Cmpd_62 Bus1=14_841 Bus2=14_854 phases=3 Linecode=2c_.0225 Length=16.7391 Units=m
New Line.LINE14_Cmpd_63 Bus1=14_549 Bus2=14_622 phases=3 Linecode=2c_.0225 Length=25.24848 Units=m
New Line.LINE14_Cmpd_64 Bus1=14_291 Bus2=14_372 phases=3 Linecode=4c_.06 Length=16.9026 Units=m
New Line.LINE14_Cmpd_65 Bus1=14_162 Bus2=14_225 phases=3 Linecode=4c_.06 Length=10.7353 Units=m
New Line.LINE14_Cmpd_66 Bus1=14_739 Bus2=14_802 phases=3 Linecode=2c_16 Length=3.24856 Units=m
New Line.LINE14_Cmpd_67 Bus1=14_330 Bus2=14_358 phases=3 Linecode=2c_16 Length=6.4466 Units=m
New Line.LINE14_Cmpd_68 Bus1=14_93 Bus2=14_149 phases=3 Linecode=4c_70 Length=21.0089 Units=m
New Line.LINE14_Cmpd_69 Bus1=14_687 Bus2=14_727 phases=3 Linecode=4c_.06 Length=10.95893 Units=m
New Line.LINE14_Cmpd_70 Bus1=14_101 Bus2=14_181 phases=3 Linecode=2c_16 Length=13.21182 Units=m
New Line.LINE14_Cmpd_71 Bus1=14_516 Bus2=14_549 phases=3 Linecode=4c_.1 Length=10.2965 Units=m
New Line.LINE14_Cmpd_72 Bus1=14_116 Bus2=14_162 phases=3 Linecode=4c_.06 Length=23.34418 Units=m
New Line.LINE14_Cmpd_73 Bus1=14_37 Bus2=14_50 phases=3 Linecode=2c_16 Length=8.62003 Units=m
New Line.LINE14_Cmpd_74 Bus1=14_1184 Bus2=14_1199 phases=3 Linecode=4c_.1 Length=12.1851 Units=m
New Line.LINE14_Cmpd_75 Bus1=14_93 Bus2=14_160 phases=3 Linecode=2c_25 Length=10.25682 Units=m
New Line.LINE14_Cmpd_76 Bus1=14_147 Bus2=14_167 phases=3 Linecode=2c_16 Length=6.2108 Units=m
New Line.LINE14_Cmpd_77 Bus1=14_335 Bus2=14_366 phases=3 Linecode=2c_.0225 Length=15.8841 Units=m
New Line.LINE14_Cmpd_78 Bus1=14_159 Bus2=14_246 phases=3 Linecode=2c_16 Length=6.90775 Units=m
New Line.LINE14_Cmpd_79 Bus1=14_153 Bus2=14_190 phases=3 Linecode=2c_16 Length=5.84477 Units=m
New Line.LINE14_Cmpd_80 Bus1=14_605 Bus2=14_632 phases=3 Linecode=4c_.06 Length=8.25821 Units=m
New Line.LINE14_Cmpd_81 Bus1=14_160 Bus2=14_249 phases=3 Linecode=2c_25 Length=9.51421 Units=m
New Line.LINE14_Cmpd_82 Bus1=14_1199 Bus2=14_1210 phases=3 Linecode=4c_.1 Length=6.4832 Units=m
New Line.LINE14_Cmpd_83 Bus1=14_632 Bus2=14_687 phases=3 Linecode=4c_.06 Length=4.78075 Units=m
New Line.LINE14_Cmpd_84 Bus1=14_1076 Bus2=14_1100 phases=3 Linecode=4c_.1 Length=7.574 Units=m
New Line.LINE14_Cmpd_85 Bus1=14_727 Bus2=14_748 phases=3 Linecode=2c_16 Length=12.2605 Units=m
New Line.LINE14_Cmpd_86 Bus1=14_291 Bus2=14_330 phases=3 Linecode=2c_16 Length=10.22234 Units=m
New Line.LINE14_Cmpd_87 Bus1=14_887 Bus2=14_898 phases=3 Linecode=4c_.1 Length=5.63356 Units=m
New Line.LINE14_Cmpd_88 Bus1=14_181 Bus2=14_294 phases=3 Linecode=2c_16 Length=8.25 Units=m
New Line.LINE14_Cmpd_89 Bus1=14_1076 Bus2=14_1091 phases=3 Linecode=2c_.0225 Length=10.4884 Units=m
New Line.LINE14_Cmpd_90 Bus1=14_284 Bus2=14_311 phases=3 Linecode=2c_.0225 Length=20.5954 Units=m
New Line.LINE14_Cmpd_91 Bus1=14_80 Bus2=14_116 phases=3 Linecode=4c_.06 Length=26.91034 Units=m
New Line.LINE14_Cmpd_92 Bus1=14_921 Bus2=14_939 phases=3 Linecode=2c_.0225 Length=12.5136 Units=m
New Line.LINE14_Cmpd_93 Bus1=14_938 Bus2=14_977 phases=3 Linecode=4c_.1 Length=16.49433 Units=m
New Line.LINE14_Cmpd_94 Bus1=14_384 Bus2=14_416 phases=3 Linecode=2c_16 Length=7.5079 Units=m
New Line.LINE14_Cmpd_95 Bus1=14_921 Bus2=14_938 phases=3 Linecode=4c_.1 Length=6.0046 Units=m
New Line.LINE14_Cmpd_96 Bus1=14_585 Bus2=14_605 phases=3 Linecode=4c_.06 Length=12.2941 Units=m
New Line.LINE14_Cmpd_97 Bus1=14_1157 Bus2=14_1163 phases=3 Linecode=2c_.0225 Length=13.8329 Units=m
New Line.LINE14_Cmpd_98 Bus1=14_231 Bus2=14_258 phases=3 Linecode=4c_70 Length=3.93754 Units=m
New Line.LINE14_Cmpd_99 Bus1=14_1134 Bus2=14_1147 phases=3 Linecode=4c_95_SAC_XC Length=17.7683 Units=m
New Line.LINE14_Cmpd_100 Bus1=14_1187 Bus2=14_1194 phases=3 Linecode=2c_.0225 Length=10.9111 Units=m
New Line.LINE14_Cmpd_101 Bus1=14_37 Bus2=14_44 phases=3 Linecode=4c_70 Length=13.2286 Units=m
New Line.LINE14_Cmpd_102 Bus1=14_50 Bus2=14_61 phases=3 Linecode=2c_16 Length=8.6888 Units=m
New Line.LINE14_Cmpd_103 Bus1=14_1166 Bus2=14_1172 phases=3 Linecode=2c_.0225 Length=13.332 Units=m
New Line.LINE14_Cmpd_104 Bus1=14_1065 Bus2=14_1078 phases=3 Linecode=2c_.0225 Length=10.411 Units=m
New Line.LINE14_Cmpd_105 Bus1=14_509 Bus2=14_527 phases=3 Linecode=2c_.0225 Length=12.8795 Units=m
New Line.LINE14_Cmpd_106 Bus1=14_875 Bus2=14_889 phases=3 Linecode=2c_.0225 Length=16.5615 Units=m
New Line.LINE14_Cmpd_107 Bus1=14_459 Bus2=14_481 phases=3 Linecode=2c_.0225 Length=10.690048 Units=m
New Line.LINE14_Cmpd_108 Bus1=14_159 Bus2=14_184 phases=3 Linecode=2c_16 Length=4.9572 Units=m
New Line.LINE14_Cmpd_109 Bus1=14_1134 Bus2=14_1150 phases=3 Linecode=4c_95_SAC_XC Length=52.2331 Units=m
New Line.LINE14_Cmpd_110 Bus1=14_380 Bus2=14_411 phases=3 Linecode=2c_16 Length=4.5837 Units=m
New Line.LINE14_Cmpd_111 Bus1=14_820 Bus2=14_834 phases=3 Linecode=4c_.1 Length=3.24018 Units=m
New Line.LINE14_Cmpd_112 Bus1=14_1210 Bus2=14_1216 phases=3 Linecode=2c_.0225 Length=17.4098 Units=m
New Line.LINE14_Cmpd_113 Bus1=14_26 Bus2=14_32 phases=3 Linecode=2c_16 Length=6.8569 Units=m
New Line.LINE14_Cmpd_114 Bus1=14_258 Bus2=14_284 phases=3 Linecode=4c_70 Length=3.4968 Units=m
