Test_Network/condensed/network_1/Feeder_4/LoadsCopyUnq.txt
New Load.LOAD14_1 Phases=1 Bus1=14_32.1 kV=0.23 kW=1 PF=0.95
New Load.LOAD14_2 Phases=1 Bus1=14_52.1 kV=0.23 kW=1 PF=0.95
New Load.LOAD14_3 Phases=1 Bus1=14_53.1 kV=0.23 kW=1 PF=0.95
New Load.LOAD14_4 Phases=1 Bus1=14_61.2 kV=0.23 kW=1 PF=0.95
New Load.LOAD14_5 Phases=1 Bus1=14_74.2 kV=0.23 kW=1 PF=0.95
New Load.LOAD14_6 Phases=1 Bus1=14_75.2 kV=0.23 kW=1 PF=0.95
New Load.LOAD14_7 Phases=1 Bus1=14_167.1 kV=0.23 kW=1 PF=0.95
New Load.LOAD14_8 Phases=1 Bus1=14_174.1 kV=0.23 kW=1 PF=0.95
New Load.LOAD14_9 Phases=1 Bus1=14_184.2 kV=0.23 kW=1 PF=0.95
New Load.LOAD14_10 Phases=1 Bus1=14_190.3 kV=0.23 kW=1 PF=0.95
New Load.LOAD14_11 Phases=1 Bus1=14_206.2 kV=0.23 kW=1 PF=0.95
New Load.LOAD14_12 Phases=1 Bus1=14_246.2 kV=0.23 kW=1 PF=0.95
New Load.LOAD14_13 Phases=1 Bus1=14_247.1 kV=0.23 kW=1 PF=0.95
New Load.LOAD14_14 Phases=1 Bus1=14_248.1 kV=0.23 kW=1 PF=0.95
New Load.LOAD14_15 Phases=1 Bus1=14_249.1 kV=0.23 kW=1 PF=0.95
New Load.LOAD14_16 Phases=1 Bus1=14_280.1 kV=0.23 kW=1 PF=0.95
New Load.LOAD14_17 Phases=1 Bus1=14_288.2 kV=0.23 kW=1 PF=0.95
New Load.LOAD14_18 Phases=1 Bus1=14_292.3 kV=0.23 kW=1 PF=0.95
New Load.LOAD14_19 Phases=1 Bus1=14_294.2 kV=0.23 kW=1 PF=0.95
New Load.LOAD14_20 Phases=1 Bus1=14_302.2 kV=0.23 kW=1 PF=0.95
New Load.LOAD14_21 Phases=1 Bus1=14_303.2 kV=0.23 kW=1 PF=0.95
New Load.LOAD14_22 Phases=1 Bus1=14_311.1 kV=0.23 kW=1 PF=0.95
New Load.LOAD14_23 Phases=1 Bus1=14_358.2 kV=0.23 kW=1 PF=0.95
New Load.LOAD14_24 Phases=1 Bus1=14_366.2 kV=0.23 kW=1 PF=0.95
New Load.LOAD14_25 Phases=1 Bus1=14_397.3 kV=0.23 kW=1 PF=0.95
New Load.LOAD14_26 Phases=1 Bus1=14_411.1 kV=0.23 kW=1 PF=0.95
New Load.LOAD14_27 Phases=1 Bus1=14_414.3 kV=0.23 kW=1 PF=0.95
New Load.LOAD14_28 Phases=1 Bus1=14_416.1 kV=0.23 kW=1 PF=0.95
New Load.LOAD14_29 Phases=1 Bus1=14_447.3 kV=0.23 kW=1 PF=0.95
New Load.LOAD14_30 Phases=1 Bus1=14_448.3 kV=0.23 kW=1 PF=0.95
New Load.LOAD14_31 Phases=1 Bus1=14_468.3 kV=0.23 kW=1 PF=0.95
New Load.LOAD14_32 Phases=1 Bus1=14_473.1 kV=0.23 kW=1 PF=0.95
New Load.LOAD14_33 Phases=1 Bus1=14_484.2 kV=0.23 kW=1 PF=0.95
New Load.LOAD14_34 Phases=1 Bus1=14_492.2 kV=0.23 kW=1 PF=0.95
New Load.LOAD14_35 Phases=1 Bus1=14_520.3 kV=0.23 kW=1 PF=0.95
New Load.LOAD14_36 Phases=1 Bus1=14_522.1 kV=0.23 kW=1 PF=0.95
New Load.LOAD14_37 Phases=1 Bus1=14_527.1 kV=0.23 kW=1 PF=0.95
New Load.LOAD14_38 Phases=1 Bus1=14_554.3 kV=0.23 kW=1 PF=0.95
New Load.LOAD14_39 Phases=1 Bus1=14_590.2 kV=0.23 kW=1 PF=0.95
New Load.LOAD14_40 Phases=1 Bus1=14_591.2 kV=0.23 kW=1 PF=0.95
New Load.LOAD14_41 Phases=1 Bus1=14_622.3 kV=0.23 kW=1 PF=0.95
New Load.LOAD14_42 Phases=1 Bus1=14_645.3 kV=0.23 kW=1 PF=0.95
New Load.LOAD14_43 Phases=1 Bus1=14_679.2 kV=0.23 kW=1 PF=0.95
New Load.LOAD14_44 Phases=1 Bus1=14_692.2 kV=0.23 kW=1 PF=0.95
New Load.LOAD14_45 Phases=1 Bus1=14_708.3 kV=0.23 kW=1 PF=0.95
New Load.LOAD14_46 Phases=1 Bus1=14_748.2 kV=0.23 kW=1 PF=0.95
New Load.LOAD14_47 Phases=1 Bus1=14_783.3 kV=0.23 kW=1 PF=0.95
New Load.LOAD14_48 Phases=1 Bus1=14_802.1 kV=0.23 kW=1 PF=0.95
New Load.LOAD14_49 Phases=1 Bus1=14_816.2 kV=0.23 kW=1 PF=0.95
New Load.LOAD14_50 Phases=1 Bus1=14_831.1 kV=0.23 kW=1 PF=0.95
New Load.LOAD14_51 Phases=1 Bus1=14_833.1 kV=0.23 kW=1 PF=0.95
New Load.LOAD14_52 Phases=1 Bus1=14_854.2 kV=0.23 kW=1 PF=0.95
New Load.LOAD14_53 Phases=1 Bus1=14_886.3 kV=0.23 kW=1 PF=0.95
New Load.LOAD14_54 Phases=1 Bus1=14_889.1 kV=0.23 kW=1 PF=0.95
New Load.LOAD14_55 Phases=1 Bus1=14_939.3 kV=0.23 kW=1 PF=0.95
New Load.LOAD14_56 Phases=1 Bus1=14_945.1 kV=0.23 kW=1 PF=0.95
New Load.LOAD14_57 Phases=1 Bus1=14_960.3 kV=0.23 kW=1 PF=0.95
New Load.LOAD14_58 Phases=1 Bus1=14_989.1 kV=0.23 kW=1 PF=0.95
New Load.LOAD14_59 Phases=1 Bus1=14_1000.2 kV=0.23 kW=1 PF=0.95
New Load.LOAD14_60 Phases=1 Bus1=14_1022.1 kV=0.23 kW=1 PF=0.95
New Load.LOAD14_61 Phases=1 Bus1=14_1050.3 kV=0.23 kW=1 PF=0.95
New Load.LOAD14_62 Phases=1 Bus1=14_1078.1 kV=0.23 kW=1 PF=0.95
New Load.LOAD14_63 Phases=1 Bus1=14_1085.2 kV=0.23 kW=1 PF=0.95
New Load.LOAD14_64 Phases=1 Bus1=14_1091.3 kV=0.23 kW=1 PF=0.95
New Load.LOAD14_65 Phases=1 Bus1=14_1144.1 kV=0.23 kW=1 PF=0.95
New Load.LOAD14_66 Phases=1 Bus1=14_1147.2 kV=0.23 kW=1 PF=0.95
New Load.LOAD14_67 Phases=1 Bus1=14_1150.3 kV=0.23 kW=1 PF=0.95
New Load.LOAD14_68 Phases=1 Bus1=14_1161.1 kV=0.23 kW=1 PF=0.95
New Load.LOAD14_69 Phases=1 Bus1=14_1163.3 kV=0.23 kW=1 PF=0.95
New Load.LOAD14_70 Phases=1 Bus1=14_1172.3 kV=0.23 kW=1 PF=0.95
New Load.LOAD14_71 Phases=1 Bus1=14_1194.1 kV=0.23 kW=1 PF=0.95
New Load.LOAD14_72 Phases=1 Bus1=14_1207.1 kV=0.23 kW=1 PF=0.95
New Load.LOAD14_73 Phases=1 Bus1=14_1212.1 kV=0.23 kW=1 PF=0.95
New Load.LOAD14_74 Phases=1 Bus1=14_1216.2 kV=0.23 kW=1 PF=0.95
New Load.LOAD14_75 Phases=1 Bus1=14_1230.2 kV=0.23 kW=1 PF=0.95
